44
stuff
O               -6.03434276                -3.56232282            -4.56294479
O               -5.31321655                -3.15084455            -5.04119922
O               -7.54072981                -4.49531739            -2.94484053
O               -4.98427637                -5.01051792            -3.57933427
O               -5.11619703                -6.17879460            -0.27112917
O               -14.27555604                -0.89283205            0.59221856
O               -13.84463061                -1.31844688            -0.66396028
O               -10.18386215                4.58797705            1.65764112
O               7.84430109                3.65512505            -5.13035289
O               -0.49483808                5.61102111            -2.37609076
O               1.79307144                4.13649629            -5.53976983
O               -1.17737641                4.49999819            -4.60729215
O               8.55525408                -3.96036047            3.37001213
O               10.22494002                -0.31540982            4.97004721
O               9.93064786                -4.32448113            1.76818156
O               -10.96862610                4.45421728            1.92772005
O               7.28054284                1.66750760            6.48018583
O               7.37897381                0.84511927            6.53037663
O               -9.93253148                4.81411014            1.69172189
O               9.67630740                -4.46412471            -0.52506998
O               -7.66770828                -1.67743890            -5.22998388
O               -8.59295210                -2.63435835            -4.18008917
O               6.56406483                1.43183775            6.28431612
O               7.53906610                -7.00966260            -0.14751074
O               9.65448539                0.80107488            5.47547849
O               2.38327303                -8.47433967            -0.09889526
O               10.72720672                4.67766028            -2.35877720
O               11.15107673                3.18034374            2.45997755
O               8.41153861                2.94267008            4.99413903
O               -13.47798386                0.37319791            -1.98776719
O               3.02590060                1.79357336            -6.28486797
O               5.59406391                3.63895174            -5.93102325
O               11.63489493                0.43030021            2.57083013
O               9.78850858                -3.48744465            2.84613225
O               -4.08826732                -5.61977048            -3.03187803
O               0.40256011                2.93695885            5.95539347
O               11.90976900                3.99169540            -0.70800657
O               -9.13389003                -1.11030044            -4.23669636
O               -1.48141364                -7.24455835            0.00321718
O               -2.91992879                -6.56901675            1.27952068
O               -11.83528548                -2.44213540            -2.81625004
O               2.32277415                3.41648028            6.19850844
O               5.81861063                2.61551884            -6.24358111
O               3.81658503                3.02199421            5.77811400


